<?xml version="1.0" encoding="UTF-8"?>

<!-- generated on 2022-12-27 17:38:13 by Eclipse SUMO activitygen Version 1.15.0
<configuration xmlns:xsi="http://www.w3.org/2001/XMLSchema-instance" xsi:noNamespaceSchemaLocation="http://sumo.dlr.de/xsd/activitygenConfiguration.xsd">

    <input>
        <net-file value="../osm.net.xml"/>
        <stat-file value="../stats.xml"/>
    </input>

    <output>
        <output-file value="../gen.trips.rou.xml"/>
    </output>

    <time>
        <begin value="0"/>
        <end value="86400"/>
    </time>

    <report>
        <verbose value="true"/>
    </report>

    <random_number>
        <random value="true"/>
    </random_number>

</configuration>
