<?xml version="1.0" encoding="UTF-8"?>

<!-- generated on 2022-12-27 16:42:02 by Eclipse SUMO netconvert Version 1.15.0
<configuration xmlns:xsi="http://www.w3.org/2001/XMLSchema-instance" xsi:noNamespaceSchemaLocation="http://sumo.dlr.de/xsd/netconvertConfiguration.xsd">

    <input>
        <type-files value="${SUMO_HOME}/data/typemap/osmNetconvert.typ.xml"/>
        <osm-files value="osm_bbox.osm.xml.gz"/>
    </input>

    <output>
        <output-file value="osm.net.xml.gz"/>
        <output.street-names value="true"/>
        <output.original-names value="true"/>
    </output>

    <projection>
        <proj.utm value="true"/>
    </projection>

    <processing>
        <geometry.remove value="true"/>
        <roundabouts.guess value="true"/>
    </processing>

    <tls_building>
        <tls.discard-simple value="true"/>
        <tls.join value="true"/>
        <tls.guess-signals value="true"/>
        <tls.default-type value="actuated"/>
    </tls_building>

    <ramp_guessing>
        <ramps.guess value="true"/>
    </ramp_guessing>

    <edge_removal>
        <keep-edges.by-vclass value="passenger"/>
    </edge_removal>

    <junctions>
        <junctions.join value="true"/>
        <junctions.corner-detail value="5"/>
    </junctions>

    <report>
        <verbose value="true"/>
    </report>

</configuration>
-->

<net version="1.9" junctionCornerDetail="5" limitTurnSpeed="5.50" xmlns:xsi="http://www.w3.org/2001/XMLSchema-instance" xsi:noNamespaceSchemaLocation="http://sumo.dlr.de/xsd/net_file.xsd">

    <location netOffset="-351072.65,-5257769.01" convBoundary="0.00,0.00,2943.03,3736.15" origBoundary="19.020922,47.452163,19.078979,47.498139" projParameter="+proj=utm +zone=34 +ellps=WGS84 +datum=WGS84 +units=m +no_defs"/>

    <type id="highway.bridleway" priority="1" numLanes="1" speed="2.78" allow="pedestrian" oneway="1" width="2.00"/>
    <type id="highway.bus_guideway" priority="1" numLanes="1" speed="27.78" allow="bus" oneway="1"/>
    <type id="highway.cycleway" priority="1" numLanes="1" speed="5.56" allow="bicycle" oneway="0" width="1.00"/>
    <type id="highway.footway" priority="1" numLanes="1" speed="2.78" allow="pedestrian" oneway="1" width="2.00"/>
    <type id="highway.ford" priority="1" numLanes="1" speed="2.78" allow="army" oneway="0"/>
    <type id="highway.living_street" priority="2" numLanes="1" speed="2.78" disallow="tram rail_urban rail rail_electric rail_fast ship" oneway="0"/>
    <type id="highway.motorway" priority="14" numLanes="2" speed="39.44" allow="private emergency authority army vip passenger hov taxi bus coach delivery truck trailer motorcycle evehicle custom1 custom2" oneway="1"/>
    <type id="highway.motorway_link" priority="9" numLanes="1" speed="22.22" allow="private emergency authority army vip passenger hov taxi bus coach delivery truck trailer motorcycle evehicle custom1 custom2" oneway="1"/>
    <type id="highway.path" priority="1" numLanes="1" speed="5.56" allow="pedestrian bicycle" oneway="0" width="2.00"/>
    <type id="highway.pedestrian" priority="1" numLanes="1" speed="2.78" allow="pedestrian" oneway="1" width="2.00"/>
    <type id="highway.primary" priority="12" numLanes="2" speed="27.78" disallow="tram rail_urban rail rail_electric rail_fast ship" oneway="0"/>
    <type id="highway.primary_link" priority="7" numLanes="1" speed="22.22" disallow="tram rail_urban rail rail_electric rail_fast ship" oneway="0"/>
    <type id="highway.raceway" priority="15" numLanes="2" speed="83.33" allow="vip" oneway="0"/>
    <type id="highway.residential" priority="3" numLanes="1" speed="13.89" disallow="tram rail_urban rail rail_electric rail_fast ship" oneway="0"/>
    <type id="highway.secondary" priority="11" numLanes="1" speed="27.78" disallow="tram rail_urban rail rail_electric rail_fast ship" oneway="0"/>
    <type id="highway.secondary_link" priority="6" numLanes="1" speed="22.22" disallow="tram rail_urban rail rail_electric rail_fast ship" oneway="0"/>
    <type id="highway.service" priority="1" numLanes="1" speed="5.56" allow="pedestrian delivery bicycle" oneway="0"/>
    <type id="highway.stairs" priority="1" numLanes="1" speed="1.39" allow="pedestrian" oneway="1" width="2.00"/>
    <type id="highway.step" priority="1" numLanes="1" speed="1.39" allow="pedestrian" oneway="1" width="2.00"/>
    <type id="highway.steps" priority="1" numLanes="1" speed="1.39" allow="pedestrian" oneway="1" width="2.00"/>
    <type id="highway.tertiary" priority="10" numLanes="1" speed="22.22" disallow="tram rail_urban rail rail_electric rail_fast ship" oneway="0"/>
    <type id="highway.tertiary_link" priority="5" numLanes="1" speed="22.22" disallow="tram rail_urban rail rail_electric rail_fast ship" oneway="0"/>
    <type id="highway.track" priority="1" numLanes="1" speed="5.56" allow="pedestrian motorcycle moped bicycle" oneway="0"/>
    <type id="highway.trunk" priority="13" numLanes="2" speed="27.78" disallow="pedestrian bicycle tram rail_urban rail rail_electric rail_fast ship" oneway="0"/>
    <type id="highway.trunk_link" priority="8" numLanes="1" speed="22.22" disallow="pedestrian bicycle tram rail_urban rail rail_electric rail_fast ship" oneway="0"/>
    <type id="highway.unclassified" priority="4" numLanes="1" speed="13.89" disallow="tram rail_urban rail rail_electric rail_fast ship" oneway="0"/>
    <type id="highway.unsurfaced" priority="1" numLanes="1" speed="8.33" disallow="tram rail_urban rail rail_electric rail_fast ship" oneway="0"/>
    <type id="railway.highspeed" priority="21" numLanes="1" speed="69.44" allow="rail_fast" oneway="1"/>
    <type id="railway.light_rail" priority="19" numLanes="1" speed="27.78" allow="rail_urban" oneway="1"/>
    <type id="railway.preserved" priority="16" numLanes="1" speed="27.78" allow="rail" oneway="1"/>
    <type id="railway.rail" priority="20" numLanes="1" speed="44.44" allow="rail" oneway="1"/>
    <type id="railway.subway" priority="18" numLanes="1" speed="27.78" allow="rail_urban" oneway="1"/>
    <type id="railway.tram" priority="17" numLanes="1" speed="13.89" allow="tram" oneway="1"/>

    <edge id=":10166139782_0" function="internal">
        <lane id=":10166139782_0_0" index="0" disallow="tram rail_urban rail rail_electric rail_fast ship" speed="16.67" length="0.30" shape="2238.76,3155.07 2238.58,3155.31"/>
    </edge>
    <edge id=":10166139782_1" function="internal">
        <lane id=":10166139782_1_0" index="0" disallow="tram rail_urban rail rail_electric rail_fast ship" speed="16.67" length="0.30" shape="2236.02,3153.39 2236.20,3153.16"/>
    </edge>
    <edge id=":1103880810-AddedOnRampNode_0" function="internal">
        <lane id=":1103880810-AddedOnRampNode_0_0" index="0" disallow="tram rail_urban rail rail_electric rail_fast ship" speed="22.22" length="8.00" shape="1334.51,509.06 1332.44,501.34"/>
    </edge>
    <edge id=":1110663214_0" function="internal">
        <lane id=":1110663214_0_0" index="0" disallow="pedestrian tram rail_urban rail rail_electric rail_fast ship" speed="11.11" length="0.23" shape="1707.56,2273.13 1707.59,2273.07 1707.61,2273.02 1707.64,2272.98 1707.68,2272.93"/>
    </edge>
    <edge id=":1110663314_0" function="internal">
        <lane id=":1110663314_0_0" index="0" disallow="tram rail_urban rail rail_electric rail_fast ship" speed="13.89" length="0.10" shape="1882.68,2316.35 1882.68,2316.35"/>
    </edge>
    <edge id=":1110663315_0" function="internal">
        <lane id=":1110663315_0_0" index="0" disallow="pedestrian tram rail_urban rail rail_electric rail_fast ship" speed="13.89" length="8.19" shape="1876.32,2379.89 1874.09,2378.98 1872.42,2378.69 1870.75,2378.39 1868.54,2377.44"/>
        <lane id=":1110663315_0_1" index="1" disallow="pedestrian tram rail_urban rail rail_electric rail_fast ship" speed="13.89" length="8.19" shape="1876.32,2379.89 1874.34,2378.54 1873.20,2377.30 1872.07,2376.04 1870.12,2374.65"/>
    </edge>
    <edge id=":1159062449_0" function="internal">
        <lane id=":1159062449_0_0" index="0" disallow="tram rail_urban rail rail_electric rail_fast ship" speed="3.65" length="4.67" shape="1782.25,49.36 1782.77,48.01 1783.46,47.45 1784.33,47.66 1785.37,48.65"/>
    </edge>
    <edge id=":1178769888_0" function="internal">
        <lane id=":1178769888_0_0" index="0" disallow="tram rail_urban rail rail_electric rail_fast ship" speed="8.27" length="9.81" shape="1879.47,2318.10 1878.05,2319.17 1876.95,2320.65 1876.17,2322.54 1875.71,2324.84"/>
        <lane id=":1178769888_0_1" index="1" disallow="tram rail_urban rail rail_electric rail_fast ship" speed="9.03" length="9.81" shape="1879.47,2318.10 1876.56,2319.85 1874.43,2321.49 1873.09,2323.03 1872.53,2324.46"/>
        <lane id=":1178769888_0_2" index="2" disallow="tram rail_urban rail rail_electric rail_fast ship" speed="9.92" length="9.81" shape="1879.47,2318.10 1877.53,2319.10 1874.13,2320.89 1870.86,2322.79 1869.36,2324.07"/>
    </edge>
    <edge id=":1299579439_0" function="internal">
        <lane id=":1299579439_0_0" index="0" disallow="tram rail_urban rail rail_electric rail_fast ship" speed="10.30" length="11.88" shape="2331.22,2961.79 2332.47,2959.67 2333.11,2957.06 2333.17,2953.96 2332.62,2950.38"/>
    </edge>
    <edge id=":1299579439_1" function="internal">
        <lane id=":1299579439_1_0" index="0" disallow="tram rail_urban rail rail_electric rail_fast ship" speed="13.89" length="10.63" shape="2331.22,2961.79 2338.05,2953.62"/>
        <lane id=":1299579439_1_1" index="1" disallow="tram rail_urban rail rail_electric rail_fast ship" speed="13.89" length="10.63" shape="2333.70,2963.83 2340.51,2955.67"/>
        <lane id=":1299579439_1_2" index="2" disallow="tram rail_urban rail rail_electric rail_fast ship" speed="13.89" length="10.63" shape="2336.17,2965.86 2342.97,2957.72"/>
    </edge>
    <edge id=":1315149878_0" function="internal">
        <lane id=":1315149878_0_0" index="0" disallow="tram rail_urban rail rail_electric rail_fast ship" speed="3.65" length="4.67" shape="38.56,1250.37 37.31,1249.65 36.87,1248.87 37.21,1248.05 38.36,1247.17"/>
    </edge>
    <edge id=":1398989689_0" function="internal">
        <lane id=":1398989689_0_0" index="0" disallow="pedestrian tram rail_urban rail rail_electric rail_fast ship" speed="13.89" length="5.79" shape="793.53,1854.33 793.65,1855.99 794.12,1857.09 794.61,1858.20 794.76,1859.86"/>
        <lane id=":1398989689_0_1" index="1" disallow="pedestrian tram rail_urban rail rail_electric rail_fast ship" speed="13.89" length="5.79" shape="790.35,1854.06 790.46,1855.74 790.93,1856.86 791.42,1857.98 791.57,1859.66"/>
        <lane id=":1398989689_0_2" index="2" disallow="pedestrian tram rail_urban rail rail_electric rail_fast ship" speed="13.89" length="5.79" shape="790.35,1854.06 789.96,1855.71 789.33,1856.76 788.72,1857.82 788.38,1859.47"/>
    </edge>
    <edge id=":1404431648_0" function="internal">
        <lane id=":1404431648_0_0" index="0" allow="bus bicycle" speed="13.89" length="8.21" shape="1146.22,2126.31 1148.38,2125.29 1149.69,2124.24 1151.00,2123.18 1153.16,2122.13"/>
        <lane id=":1404431648_0_1" index="1" disallow="tram rail_urban rail rail_electric rail_fast ship" speed="13.89" length="8.21" shape="1147.28,2129.33 1149.45,2128.30 1150.77,2127.25 1152.09,2126.19 1154.25,2125.13"/>
        <lane id=":1404431648_0_2" index="2" disallow="tram rail_urban rail rail_electric rail_fast ship" speed="13.89" length="8.21" shape="1148.34,2132.35 1150.52,2131.32 1151.85,2130.26 1153.18,2129.20 1155.35,2128.14"/>
        <lane id=":1404431648_0_3" index="3" disallow="tram rail_urban rail rail_electric rail_fast ship" speed="13.89" length="8.21" shape="1148.34,2132.35 1150.70,2131.78 1152.40,2131.76 1154.10,2131.73 1156.45,2131.14"/>
    </edge>
    <edge id=":1404431651_0" function="internal">
        <lane id=":1404431651_0_0" index="0" disallow="pedestrian tram rail_urban rail rail_electric rail_fast ship" speed="13.89" length="1.33" shape="685.16,2301.31 683.94,2301.80"/>
        <lane id=":1404431651_0_1" index="1" disallow="pedestrian tram rail_urban rail rail_electric rail_fast ship" speed="13.89" length="1.33" shape="686.34,2304.29 685.08,2304.79"/>
    </edge>
    <edge id=":1420470417_0" function="internal">
        <lane id=":1420470417_0_0" index="0" disallow="tram rail_urban rail rail_electric rail_fast ship" speed="13.89" length="8.21" shape="2110.92,1872.06 2108.62,1872.75 2107.15,1873.58 2105.69,1874.43 2103.39,1875.14"/>
        <lane id=":1420470417_0_1" index="1" disallow="tram rail_urban rail rail_electric rail_fast ship" speed="13.89" length="8.21" shape="2110.33,1868.92 2108.02,1869.60 2106.55,1870.44 2105.08,1871.29 2102.77,1872.00"/>
        <lane id=":1420470417_0_2" index="2" disallow="tram rail_urban rail rail_electric rail_fast ship" speed="13.89" length="8.21" shape="2109.75,1865.77 2107.42,1866.46 2105.94,1867.30 2104.47,1868.15 2102.15,1868.86"/>
    </edge>
    <edge id=":1420470437_0" function="internal">
        <lane id=":1420470437_0_0" index="0" disallow="tram rail_urban rail rail_electric rail_fast ship" speed="13.89" length="8.34" shape="2387.53,2072.15 2389.46,2070.71 2390.30,2069.10 2391.12,2067.44 2392.99,2065.87"/>
        <lane id=":1420470437_0_1" index="1" disallow="tram rail_urban rail rail_electric rail_fast ship" speed="13.89" length="8.34" shape="2387.53,2072.15 2394.51,2068.69"/>
        <lane id=":1420470437_0_2" index="2" disallow="tram rail_urban rail rail_electric rail_fast ship" speed="13.89" length="8.34" shape="2387.53,2072.15 2389.96,2071.59 2391.82,2071.92 2393.65,2072.21 2396.02,2071.51"/>
    </edge>
    <edge id=":1503752560_0" function="internal">
        <lane id=":1503752560_0_0" index="0" disallow="tram rail_urban rail rail_electric rail_fast ship" speed="13.89" length="8.07" shape="1758.62,2030.49 1759.47,2032.71 1760.40,2034.10 1761.29,2035.50 1762.05,2037.74"/>
    </edge>
    <edge id=":154422835_0" function="internal">
        <lane id=":154422835_0_0" index="0" disallow="tram rail_urban rail rail_electric rail_fast ship" speed="6.98" length="9.80" shape="2003.76,1271.42 2001.34,1272.37 1999.72,1273.90 1998.92,1276.03 1998.92,1278.74"/>
    </edge>
    <edge id=":154422835_1" function="internal">
        <lane id=":154422835_1_0" index="0" disallow="tram rail_urban rail rail_electric rail_fast ship" speed="8.33" length="14.77" shape="2003.76,1271.42 1989.37,1274.77"/>
    </edge>
    <edge id=":154422835_2" function="internal">
        <lane id=":154422835_2_0" index="0" disallow="tram rail_urban rail rail_electric rail_fast ship" speed="3.65" length="4.67" shape="2003.76,1271.42 2002.41,1270.91 2001.84,1270.22 2002.05,1269.35 2003.03,1268.30"/>
    </edge>
    <edge id=":154422835_3" function="internal">
        <lane id=":154422835_3_0" index="0" disallow="tram rail_urban rail rail_electric rail_fast ship" speed="6.47" length="9.03" shape="1996.38,1264.07 1997.23,1266.40 1998.63,1267.88 2000.56,1268.51 2003.03,1268.30"/>
    </edge>
    <edge id=":154422835_4" function="internal">
        <lane id=":154422835_4_0" index="0" disallow="tram rail_urban rail rail_electric rail_fast ship" speed="16.67" length="14.77" shape="1996.38,1264.07 1998.92,1278.74"/>
        <lane id=":154422835_4_1" index="1" disallow="tram rail_urban rail rail_electric rail_fast ship" speed="16.67" length="14.77" shape="1993.25,1264.73 1995.75,1279.17"/>
    </edge>
    <edge id=":154422835_6" function="internal">
        <lane id=":154422835_6_0" index="0" disallow="tram rail_urban rail rail_electric rail_fast ship" speed="8.33" length="14.78" shape="1988.64,1271.66 2003.03,1268.30"/>
    </edge>
    <edge id=":154422835_7" function="internal">
        <lane id=":154422835_7_0" index="0" disallow="tram rail_urban rail rail_electric rail_fast ship" speed="7.14" length="11.91" shape="1988.64,1271.66 1991.30,1271.61 1993.37,1272.84 1994.86,1275.36 1995.75,1279.17"/>
    </edge>
    <edge id=":154422835_8" function="internal">
        <lane id=":154422835_8_0" index="0" disallow="tram rail_urban rail rail_electric rail_fast ship" speed="3.65" length="4.67" shape="1988.64,1271.66 1989.99,1272.16 1990.56,1272.85 1990.35,1273.72 1989.37,1274.77"/>
    </edge>
    <edge id=":1544884789_0" function="internal">
        <lane id=":1544884789_0_0" index="0" disallow="tram rail_urban rail rail_electric rail_fast ship" speed="6.51" length="9.04" shape="1590.21,1380.38 1587.93,1381.35 1586.50,1382.82 1585.93,1384.78 1586.22,1387.24"/>
    </edge>
    <edge id=":1544884789_1" function="internal">
        <lane id=":1544884789_1_0" index="0" disallow="tram rail_urban rail rail_electric rail_fast ship" speed="3.65" length="4.67" shape="1590.21,1380.38 1588.85,1379.92 1588.25,1379.25 1588.44,1378.37 1589.39,1377.29"/>
    </edge>
    <edge id=":1544884789_2" function="internal">
        <lane id=":1544884789_2_0" index="0" disallow="tram rail_urban rail rail_electric rail_fast ship" speed="6.50" length="9.03" shape="1582.56,1373.30 1583.52,1375.59 1584.97,1377.01 1586.93,1377.58 1589.39,1377.29"/>
    </edge>
    <edge id=":1544884789_3" function="internal">
        <lane id=":1544884789_3_0" index="0" disallow="tram rail_urban rail rail_electric rail_fast ship" speed="13.89" length="14.42" shape="1582.56,1373.30 1586.22,1387.24"/>
        <lane id=":1544884789_3_1" index="1" disallow="tram rail_urban rail rail_electric rail_fast ship" speed="13.89" length="14.42" shape="1579.46,1374.11 1583.13,1388.06"/>
    </edge>
    <edge id=":1544888404_0" function="internal">
        <lane id=":1544888404_0_0" index="0" disallow="tram rail_urban rail rail_electric rail_fast ship" speed="6.61" length="8.76" shape="2112.54,1245.24 2110.39,1246.07 2108.96,1247.44 2108.25,1249.34 2108.26,1251.79"/>
    </edge>
    <edge id=":1544888404_1" function="internal">
        <lane id=":1544888404_1_0" index="0" disallow="tram rail_urban rail rail_electric rail_fast ship" speed="8.33" length="10.61" shape="2112.54,1245.24 2102.22,1247.72"/>
    </edge>
    <edge id=":1544888404_2" function="internal">
        <lane id=":1544888404_2_0" index="0" disallow="tram rail_urban rail rail_electric rail_fast ship" speed="3.65" length="4.67" shape="2112.54,1245.24 2111.20,1244.72 2110.63,1244.03 2110.85,1243.16 2111.84,1242.12"/>
    </edge>
    <edge id=":1544888404_3" function="internal">
        <lane id=":1544888404_3_0" index="0" disallow="tram rail_urban rail rail_electric rail_fast ship" speed="8.33" length="10.70" shape="2101.44,1244.61 2111.84,1242.12"/>
    </edge>
    <edge id=":1544888404_4" function="internal">
        <lane id=":1544888404_4_0" index="0" disallow="tram rail_urban rail rail_electric rail_fast ship" speed="6.97" length="11.44" shape="2101.44,1244.61 2103.98,1244.52 2105.97,1245.69 2107.39,1248.11 2108.26,1251.79"/>
    </edge>
    <edge id=":1544888404_5" function="internal">
        <lane id=":1544888404_5_0" index="0" disallow="tram rail_urban rail rail_electric rail_fast ship" speed="3.65" length="4.67" shape="2101.44,1244.61 2102.80,1245.09 2103.38,1245.77 2103.19,1246.64 2102.22,1247.72"/>
    </edge>
    <edge id=":1544888408_0" function="internal">
        <lane id=":1544888408_0_0" index="0" disallow="tram rail_urban rail rail_electric rail_fast ship" speed="13.89" length="11.31" shape="2137.35,1417.32 2126.59,1420.78"/>
    </edge>
    <edge id=":1544888408_1" function="internal">
        <lane id=":1544888408_1_0" index="0" disallow="tram rail_urban rail rail_electric rail_fast ship" speed="3.65" length="1.44" shape="2137.35,1417.32 2135.96,1416.93"/>
    </edge>
    <edge id=":1544888408_6" function="internal">
        <lane id=":1544888408_6_0" index="0" disallow="tram rail_urban rail rail_electric rail_fast ship" speed="3.65" length="3.23" shape="2135.96,1416.93 2135.33,1416.30 2135.46,1415.41 2136.35,1414.28"/>
    </edge>
    <edge id=":1544888408_2" function="internal">
        <lane id=":1544888408_2_0" index="0" disallow="tram rail_urban rail rail_electric rail_fast ship" speed="6.16" length="9.06" shape="2129.91,1410.27 2130.61,1412.72 2131.92,1414.20 2133.84,1414.72 2136.35,1414.28"/>
    </edge>
    <edge id=":1544888408_3" function="internal">
        <lane id=":1544888408_3_0" index="0" disallow="tram rail_urban rail rail_electric rail_fast ship" speed="7.87" length="11.94" shape="2129.91,1410.27 2130.17,1414.33 2129.71,1417.44 2128.51,1419.59 2126.59,1420.78"/>
    </edge>
    <edge id=":1544888408_4" function="internal">
        <lane id=":1544888408_4_0" index="0" disallow="tram rail_urban rail rail_electric rail_fast ship" speed="13.89" length="11.27" shape="2125.63,1417.73 2136.35,1414.28"/>
    </edge>
    <edge id=":1544888408_5" function="internal">
        <lane id=":1544888408_5_0" index="0" disallow="tram rail_urban rail rail_electric rail_fast ship" speed="3.65" length="1.44" shape="2125.63,1417.73 2127.01,1418.14"/>
    </edge>
    <edge id=":1544888408_7" function="internal">
        <lane id=":1544888408_7_0" index="0" disallow="tram rail_urban rail rail_electric rail_fast ship" speed="3.65" length="3.23" shape="2127.01,1418.14 2127.63,1418.78 2127.49,1419.66 2126.59,1420.78"/>
    </edge>
    <edge id=":1547518027_0" function="internal">
        <lane id=":1547518027_0_0" index="0" disallow="tram rail_urban rail rail_electric rail_fast ship" speed="6.49" length="9.03" shape="1456.03,883.27 1453.74,884.21 1452.30,885.65 1451.72,887.61 1451.99,890.07"/>
    </edge>
    <edge id=":1547518027_1" function="internal">
        <lane id=":1547518027_1_0" index="0" disallow="tram rail_urban rail rail_electric rail_fast ship" speed="3.65" length="4.67" shape="1456.03,883.27 1454.67,882.79 1454.09,882.11 1454.28,881.23 1455.25,880.17"/>
    </edge>
    <edge id=":1547518027_2" function="internal">
        <lane id=":1547518027_2_0" index="0" disallow="tram rail_urban rail rail_electric rail_fast ship" speed="6.56" length="9.09" shape="1448.33,876.15 1449.31,878.42 1450.78,879.85 1452.77,880.43 1455.25,880.17"/>
    </edge>
    <edge id=":1547518027_3" function="internal">
        <lane id=":1547518027_3_0" index="0" disallow="tram rail_urban rail rail_electric rail_fast ship" speed="13.89" length="14.38" shape="1448.33,876.15 1451.99,890.07"/>
        <lane id=":1547518027_3_1" index="1" disallow="tram rail_urban rail rail_electric rail_fast ship" speed="13.89" length="14.38" shape="1445.24,876.98 1448.90,890.87"/>
    </edge>
    <edge id=":1547518029_0" function="internal">
        <lane id=":1547518029_0_0" index="0" disallow="tram rail_urban rail rail_electric rail_fast ship" speed="6.57" length="9.15" shape="1578.77,859.09 1577.81,856.80 1576.33,855.36 1574.34,854.76 1571.83,855.02"/>
    </edge>
    <edge id=":1547518029_1" function="internal">
        <lane id=":1547518029_1_0" index="0" disallow="tram rail_urban rail rail_electric rail_fast ship" speed="8.33" length="14.45" shape="1578.77,859.09 1575.07,845.12"/>
    </edge>
    <edge id=":1547518029_2" function="internal">
        <lane id=":1547518029_2_0" index="0" disallow="tram rail_urban rail rail_electric rail_fast ship" speed="7.31" length="11.74" shape="1578.77,859.09 1578.15,855.27 1578.48,852.35 1579.77,850.32 1582.02,849.19"/>
    </edge>
    <edge id=":1547518029_3" function="internal">
        <lane id=":1547518029_3_0" index="0" disallow="tram rail_urban rail rail_electric rail_fast ship" speed="8.33" length="11.31" shape="1582.81,852.29 1571.83,855.02"/>
    </edge>
    <edge id=":1547518029_4" function="internal">
        <lane id=":1547518029_4_0" index="0" disallow="tram rail_urban rail rail_electric rail_fast ship" speed="7.40" length="11.81" shape="1582.81,852.29 1580.29,852.35 1578.16,851.18 1576.42,848.77 1575.07,845.12"/>
    </edge>
    <edge id=":1547518029_5" function="internal">
        <lane id=":1547518029_5_0" index="0" disallow="tram rail_urban rail rail_electric rail_fast ship" speed="3.65" length="4.67" shape="1582.81,852.29 1581.45,851.81 1580.86,851.13 1581.06,850.26 1582.02,849.19"/>
    </edge>
    <edge id=":1547518029_6" function="internal">
        <lane id=":1547518029_6_0" index="0" disallow="tram rail_urban rail rail_electric rail_fast ship" speed="6.46" length="9.03" shape="1571.07,851.91 1573.37,850.98 1574.81,849.54 1575.37,847.59 1575.07,845.12"/>
    </edge>
    <edge id=":1547518029_7" function="internal">
        <lane id=":1547518029_7_0" index="0" disallow="tram rail_urban rail rail_electric rail_fast ship" speed="8.33" length="11.29" shape="1571.07,851.91 1582.02,849.19"/>
    </edge>
    <edge id=":1547518029_8" function="internal">
        <lane id=":1547518029_8_0" index="0" disallow="tram rail_urban rail rail_electric rail_fast ship" speed="3.65" length="4.67" shape="1571.07,851.91 1572.43,852.40 1573.00,853.08 1572.81,853.96 1571.83,855.02"/>
    </edge>
    <edge id=":1547518031_0" function="internal">
        <lane id=":1547518031_0_0" index="0" disallow="tram rail_urban rail rail_electric rail_fast ship" speed="6.51" length="9.08" shape="1619.49,1005.09 1618.53,1002.81 1617.06,1001.39 1615.08,1000.84 1612.59,1001.15"/>
    </edge>
    <edge id=":1547518031_1" function="internal">
        <lane id=":1547518031_1_0" index="0" disallow="tram rail_urban rail rail_electric rail_fast ship" speed="8.33" length="14.46" shape="1619.49,1005.09 1615.58,991.18"/>
    </edge>
    <edge id=":1547518031_2" function="internal">
        <lane id=":1547518031_2_0" index="0" disallow="tram rail_urban rail rail_electric rail_fast ship" speed="7.36" length="11.73" shape="1619.49,1005.09 1618.85,1001.27 1619.15,998.33 1620.40,996.27 1622.59,995.09"/>
    </edge>
    <edge id=":1547518031_3" function="internal">
        <lane id=":1547518031_3_0" index="0" disallow="tram rail_urban rail rail_electric rail_fast ship" speed="8.33" length="11.25" shape="1623.45,998.18 1612.59,1001.15"/>
    </edge>
    <edge id=":1547518031_4" function="internal">
        <lane id=":1547518031_4_0" index="0" disallow="tram rail_urban rail rail_electric rail_fast ship" speed="7.40" length="11.78" shape="1623.45,998.18 1620.96,998.29 1618.82,997.16 1617.02,994.79 1615.58,991.18"/>
    </edge>
    <edge id=":1547518031_5" function="internal">
        <lane id=":1547518031_5_0" index="0" disallow="tram rail_urban rail rail_electric rail_fast ship" speed="3.65" length="4.67" shape="1623.45,998.18 1622.08,997.73 1621.48,997.06 1621.65,996.18 1622.59,995.09"/>
    </edge>
    <edge id=":1547518031_6" function="internal">
        <lane id=":1547518031_6_0" index="0" disallow="tram rail_urban rail rail_electric rail_fast ship" speed="6.45" length="9.03" shape="1611.75,998.06 1614.04,997.08 1615.43,995.60 1615.95,993.63 1615.58,991.18"/>
    </edge>
    <edge id=":1547518031_7" function="internal">
        <lane id=":1547518031_7_0" index="0" disallow="tram rail_urban rail rail_electric rail_fast ship" speed="8.33" length="11.24" shape="1611.75,998.06 1622.59,995.09"/>
    </edge>
    <edge id=":1547518031_8" function="internal">
        <lane id=":1547518031_8_0" index="0" disallow="tram rail_urban rail rail_electric rail_fast ship" speed="3.65" length="4.67" shape="1611.75,998.06 1613.12,998.52 1613.72,999.19 1613.54,1000.06 1612.59,1001.15"/>
    </edge>
    <edge id=":1547518033_0" function="internal">
        <lane id=":1547518033_0_0" index="0" disallow="tram rail_urban rail rail_electric rail_fast ship" speed="6.59" length="9.03" shape="1655.72,1143.57 1654.71,1141.30 1653.24,1139.85 1651.29,1139.25 1648.86,1139.48"/>
    </edge>
    <edge id=":1547518033_1" function="internal">
        <lane id=":1547518033_1_0" index="0" disallow="tram rail_urban rail rail_electric rail_fast ship" speed="8.33" length="14.43" shape="1655.72,1143.57 1652.14,1129.59"/>
    </edge>
    <edge id=":1547518033_2" function="internal">
        <lane id=":1547518033_2_0" index="0" disallow="tram rail_urban rail rail_electric rail_fast ship" speed="7.26" length="11.83" shape="1655.72,1143.57 1655.02,1139.78 1655.34,1136.87 1656.67,1134.84 1659.01,1133.69"/>
    </edge>
    <edge id=":1547518033_3" function="internal">
        <lane id=":1547518033_3_0" index="0" disallow="tram rail_urban rail rail_electric rail_fast ship" speed="13.89" length="11.24" shape="1659.78,1136.80 1648.86,1139.48"/>
    </edge>
    <edge id=":1547518033_4" function="internal">
        <lane id=":1547518033_4_0" index="0" disallow="tram rail_urban rail rail_electric rail_fast ship" speed="7.38" length="2.50" shape="1659.78,1136.80 1657.28,1136.85"/>
    </edge>
    <edge id=":1547518033_5" function="internal">
        <lane id=":1547518033_5_0" index="0" disallow="tram rail_urban rail rail_electric rail_fast ship" speed="3.65" length="1.44" shape="1659.78,1136.80 1658.42,1136.31"/>
    </edge>
    <edge id=":1547518033_9" function="internal">
        <lane id=":1547518033_9_0" index="0" disallow="tram rail_urban rail rail_electric rail_fast ship" speed="7.38" length="9.27" shape="1657.28,1136.85 1655.17,1135.66 1653.46,1133.24 1652.14,1129.59"/>
    </edge>
    <edge id=":1547518033_10" function="internal">
        <lane id=":1547518033_10_0" index="0" disallow="tram rail_urban rail rail_electric rail_fast ship" speed="3.65" length="3.23" shape="1658.42,1136.31 1657.84,1135.63 1658.04,1134.76 1659.01,1133.69"/>
    </edge>
    <edge id=":1547518033_6" function="internal">
        <lane id=":1547518033_6_0" index="0" disallow="tram rail_urban rail rail_electric rail_fast ship" speed="6.47" length="9.03" shape="1648.10,1136.37 1650.40,1135.45 1651.84,1134.01 1652.42,1132.06 1652.14,1129.59"/>
    </edge>
    <edge id=":1547518033_7" function="internal">
        <lane id=":1547518033_7_0" index="0" disallow="tram rail_urban rail rail_electric rail_fast ship" speed="13.89" length="11.24" shape="1648.10,1136.37 1659.01,1133.69"/>
    </edge>
    <edge id=":1547518033_8" function="internal">
        <lane id=":1547518033_8_0" index="0" disallow="tram rail_urban rail rail_electric rail_fast ship" speed="3.65" length="1.44" shape="1648.10,1136.37 1649.46,1136.86"/>
    </edge>